5
pbc=[T, T, T] Lattice="3.84182655 0.00000000 0.00000000 0.00000000 3.84182655 0.00000000 0.00000000 0.00000000 3.84182655" Properties=species:S:1:pos:R:3:velocities:R:3:Z:I:1
Sr         1.92091328       1.92091328       1.92091328         0.00000000       0.00000000       0.00000000         38
V         0.00000000       0.00000000       0.00000000         0.00000000       0.00000000       0.00000000         23
O         1.92091328       0.00000000       0.00000000         0.00000000       0.00000000       0.00000000          8
O         0.00000000       1.92091328       0.00000000         0.00000000       0.00000000       0.00000000          8
O         0.00000000       0.00000000       1.92091328         0.00000000       0.00000000       0.00000000          8
